<?xml version="1.0" encoding="UTF-8"?>

<!-- generated on 2025-12-23 20:02:03 by Eclipse SUMO duarouter Version 1.24.0
<duarouterConfiguration xmlns:xsi="http://www.w3.org/2001/XMLSchema-instance" xsi:noNamespaceSchemaLocation="http://sumo.dlr.de/xsd/duarouterConfiguration.xsd">

    <input>
        <net-file value="baneswor_final.net.xml"/>
        <route-files value="baneswor_flowconvert.rou.xml"/>
    </input>

    <output>
        <output-file value="baneswor_vehicles.rou.xml"/>
    </output>

    <report>
        <ignore-errors value="true"/>
    </report>

    <random_number>
        <seed value="42"/>
    </random_number>

</duarouterConfiguration>
-->

<routes xmlns:xsi="http://www.w3.org/2001/XMLSchema-instance" xsi:noNamespaceSchemaLocation="http://sumo.dlr.de/xsd/routes_file.xsd">
    <vehicle id="f_0.0" depart="0.00">
        <route edges="DR2 LU1"/>
    </vehicle>
    <vehicle id="f_1.0" depart="0.00">
        <route edges="DR2 RD1"/>
    </vehicle>
    <vehicle id="f_10.0" depart="0.00">
        <route edges="LD1 RD1"/>
    </vehicle>
    <vehicle id="f_11.0" depart="0.00">
        <route edges="LD1 RD1"/>
    </vehicle>
    <vehicle id="f_12.0" depart="0.00">
        <route edges="LD1 UR2"/>
    </vehicle>
    <vehicle id="f_13.0" depart="0.00">
        <route edges="UL2 LU1"/>
    </vehicle>
    <vehicle id="f_14.0" depart="0.00">
        <route edges="UL2 RD1"/>
    </vehicle>
    <vehicle id="f_15.0" depart="0.00">
        <route edges="UL2 DL2"/>
    </vehicle>
    <vehicle id="f_2.0" depart="0.00">
        <route edges="DR2 UR2"/>
    </vehicle>
    <vehicle id="f_3.0" depart="0.00">
        <route edges="RU1 LU1"/>
    </vehicle>
    <vehicle id="f_4.0" depart="0.00">
        <route edges="RU1 LU1"/>
    </vehicle>
    <vehicle id="f_5.0" depart="0.00">
        <route edges="RU1 LU1"/>
    </vehicle>
    <vehicle id="f_6.0" depart="0.00">
        <route edges="RU1 UR2"/>
    </vehicle>
    <vehicle id="f_7.0" depart="0.00">
        <route edges="RU1 DL2"/>
    </vehicle>
    <vehicle id="f_8.0" depart="0.00">
        <route edges="LD1 DL2"/>
    </vehicle>
    <vehicle id="f_9.0" depart="0.00">
        <route edges="LD1 RD1"/>
    </vehicle>
    <vehicle id="f_0.1" depart="0.67">
        <route edges="DR2 LU1"/>
    </vehicle>
    <vehicle id="f_0.2" depart="1.33">
        <route edges="DR2 LU1"/>
    </vehicle>
    <vehicle id="f_0.3" depart="2.00">
        <route edges="DR2 LU1"/>
    </vehicle>
    <vehicle id="f_0.4" depart="2.66">
        <route edges="DR2 LU1"/>
    </vehicle>
    <vehicle id="f_0.5" depart="3.33">
        <route edges="DR2 LU1"/>
    </vehicle>
    <vehicle id="f_1.1" depart="3.60">
        <route edges="DR2 RD1"/>
    </vehicle>
    <vehicle id="f_10.1" depart="3.60">
        <route edges="LD1 RD1"/>
    </vehicle>
    <vehicle id="f_11.1" depart="3.60">
        <route edges="LD1 RD1"/>
    </vehicle>
    <vehicle id="f_12.1" depart="3.60">
        <route edges="LD1 UR2"/>
    </vehicle>
    <vehicle id="f_13.1" depart="3.60">
        <route edges="UL2 LU1"/>
    </vehicle>
    <vehicle id="f_14.1" depart="3.60">
        <route edges="UL2 RD1"/>
    </vehicle>
    <vehicle id="f_15.1" depart="3.60">
        <route edges="UL2 DL2"/>
    </vehicle>
    <vehicle id="f_2.1" depart="3.60">
        <route edges="DR2 UR2"/>
    </vehicle>
    <vehicle id="f_3.1" depart="3.60">
        <route edges="RU1 LU1"/>
    </vehicle>
    <vehicle id="f_4.1" depart="3.60">
        <route edges="RU1 LU1"/>
    </vehicle>
    <vehicle id="f_5.1" depart="3.60">
        <route edges="RU1 LU1"/>
    </vehicle>
    <vehicle id="f_6.1" depart="3.60">
        <route edges="RU1 UR2"/>
    </vehicle>
    <vehicle id="f_7.1" depart="3.60">
        <route edges="RU1 DL2"/>
    </vehicle>
    <vehicle id="f_8.1" depart="3.60">
        <route edges="LD1 DL2"/>
    </vehicle>
    <vehicle id="f_9.1" depart="3.60">
        <route edges="LD1 RD1"/>
    </vehicle>
    <vehicle id="f_0.6" depart="4.00">
        <route edges="DR2 LU1"/>
    </vehicle>
    <vehicle id="f_0.7" depart="4.66">
        <route edges="DR2 LU1"/>
    </vehicle>
    <vehicle id="f_0.8" depart="5.33">
        <route edges="DR2 LU1"/>
    </vehicle>
    <vehicle id="f_0.9" depart="5.99">
        <route edges="DR2 LU1"/>
    </vehicle>
    <vehicle id="f_0.10" depart="6.66">
        <route edges="DR2 LU1"/>
    </vehicle>
    <vehicle id="f_1.2" depart="7.20">
        <route edges="DR2 RD1"/>
    </vehicle>
    <vehicle id="f_10.2" depart="7.20">
        <route edges="LD1 RD1"/>
    </vehicle>
    <vehicle id="f_11.2" depart="7.20">
        <route edges="LD1 RD1"/>
    </vehicle>
    <vehicle id="f_12.2" depart="7.20">
        <route edges="LD1 UR2"/>
    </vehicle>
    <vehicle id="f_13.2" depart="7.20">
        <route edges="UL2 LU1"/>
    </vehicle>
    <vehicle id="f_14.2" depart="7.20">
        <route edges="UL2 RD1"/>
    </vehicle>
    <vehicle id="f_15.2" depart="7.20">
        <route edges="UL2 DL2"/>
    </vehicle>
    <vehicle id="f_2.2" depart="7.20">
        <route edges="DR2 UR2"/>
    </vehicle>
    <vehicle id="f_3.2" depart="7.20">
        <route edges="RU1 LU1"/>
    </vehicle>
    <vehicle id="f_4.2" depart="7.20">
        <route edges="RU1 LU1"/>
    </vehicle>
    <vehicle id="f_5.2" depart="7.20">
        <route edges="RU1 LU1"/>
    </vehicle>
    <vehicle id="f_6.2" depart="7.20">
        <route edges="RU1 UR2"/>
    </vehicle>
    <vehicle id="f_7.2" depart="7.20">
        <route edges="RU1 DL2"/>
    </vehicle>
    <vehicle id="f_8.2" depart="7.20">
        <route edges="LD1 DL2"/>
    </vehicle>
    <vehicle id="f_9.2" depart="7.20">
        <route edges="LD1 RD1"/>
    </vehicle>
    <vehicle id="f_0.11" depart="7.33">
        <route edges="DR2 LU1"/>
    </vehicle>
    <vehicle id="f_0.12" depart="7.99">
        <route edges="DR2 LU1"/>
    </vehicle>
    <vehicle id="f_0.13" depart="8.66">
        <route edges="DR2 LU1"/>
    </vehicle>
    <vehicle id="f_0.14" depart="9.32">
        <route edges="DR2 LU1"/>
    </vehicle>
    <vehicle id="f_0.15" depart="9.99">
        <route edges="DR2 LU1"/>
    </vehicle>
    <vehicle id="f_0.16" depart="10.66">
        <route edges="DR2 LU1"/>
    </vehicle>
    <vehicle id="f_1.3" depart="10.80">
        <route edges="DR2 RD1"/>
    </vehicle>
    <vehicle id="f_10.3" depart="10.80">
        <route edges="LD1 RD1"/>
    </vehicle>
    <vehicle id="f_11.3" depart="10.80">
        <route edges="LD1 RD1"/>
    </vehicle>
    <vehicle id="f_12.3" depart="10.80">
        <route edges="LD1 UR2"/>
    </vehicle>
    <vehicle id="f_13.3" depart="10.80">
        <route edges="UL2 LU1"/>
    </vehicle>
    <vehicle id="f_14.3" depart="10.80">
        <route edges="UL2 RD1"/>
    </vehicle>
    <vehicle id="f_15.3" depart="10.80">
        <route edges="UL2 DL2"/>
    </vehicle>
    <vehicle id="f_2.3" depart="10.80">
        <route edges="DR2 UR2"/>
    </vehicle>
    <vehicle id="f_3.3" depart="10.80">
        <route edges="RU1 LU1"/>
    </vehicle>
    <vehicle id="f_4.3" depart="10.80">
        <route edges="RU1 LU1"/>
    </vehicle>
    <vehicle id="f_5.3" depart="10.80">
        <route edges="RU1 LU1"/>
    </vehicle>
    <vehicle id="f_6.3" depart="10.80">
        <route edges="RU1 UR2"/>
    </vehicle>
    <vehicle id="f_7.3" depart="10.80">
        <route edges="RU1 DL2"/>
    </vehicle>
    <vehicle id="f_8.3" depart="10.80">
        <route edges="LD1 DL2"/>
    </vehicle>
    <vehicle id="f_9.3" depart="10.80">
        <route edges="LD1 RD1"/>
    </vehicle>
    <vehicle id="f_0.17" depart="11.32">
        <route edges="DR2 LU1"/>
    </vehicle>
    <vehicle id="f_0.18" depart="11.99">
        <route edges="DR2 LU1"/>
    </vehicle>
    <vehicle id="f_0.19" depart="12.65">
        <route edges="DR2 LU1"/>
    </vehicle>
    <vehicle id="f_0.20" depart="13.32">
        <route edges="DR2 LU1"/>
    </vehicle>
    <vehicle id="f_0.21" depart="13.99">
        <route edges="DR2 LU1"/>
    </vehicle>
    <vehicle id="f_1.4" depart="14.40">
        <route edges="DR2 RD1"/>
    </vehicle>
    <vehicle id="f_10.4" depart="14.40">
        <route edges="LD1 RD1"/>
    </vehicle>
    <vehicle id="f_11.4" depart="14.40">
        <route edges="LD1 RD1"/>
    </vehicle>
    <vehicle id="f_12.4" depart="14.40">
        <route edges="LD1 UR2"/>
    </vehicle>
    <vehicle id="f_13.4" depart="14.40">
        <route edges="UL2 LU1"/>
    </vehicle>
    <vehicle id="f_14.4" depart="14.40">
        <route edges="UL2 RD1"/>
    </vehicle>
    <vehicle id="f_15.4" depart="14.40">
        <route edges="UL2 DL2"/>
    </vehicle>
    <vehicle id="f_2.4" depart="14.40">
        <route edges="DR2 UR2"/>
    </vehicle>
    <vehicle id="f_3.4" depart="14.40">
        <route edges="RU1 LU1"/>
    </vehicle>
    <vehicle id="f_4.4" depart="14.40">
        <route edges="RU1 LU1"/>
    </vehicle>
    <vehicle id="f_5.4" depart="14.40">
        <route edges="RU1 LU1"/>
    </vehicle>
    <vehicle id="f_6.4" depart="14.40">
        <route edges="RU1 UR2"/>
    </vehicle>
    <vehicle id="f_7.4" depart="14.40">
        <route edges="RU1 DL2"/>
    </vehicle>
    <vehicle id="f_8.4" depart="14.40">
        <route edges="LD1 DL2"/>
    </vehicle>
    <vehicle id="f_9.4" depart="14.40">
        <route edges="LD1 RD1"/>
    </vehicle>
    <vehicle id="f_0.22" depart="14.65">
        <route edges="DR2 LU1"/>
    </vehicle>
    <vehicle id="f_0.23" depart="15.32">
        <route edges="DR2 LU1"/>
    </vehicle>
    <vehicle id="f_0.24" depart="15.98">
        <route edges="DR2 LU1"/>
    </vehicle>
    <vehicle id="f_0.25" depart="16.65">
        <route edges="DR2 LU1"/>
    </vehicle>
    <vehicle id="f_0.26" depart="17.32">
        <route edges="DR2 LU1"/>
    </vehicle>
    <vehicle id="f_0.27" depart="17.98">
        <route edges="DR2 LU1"/>
    </vehicle>
    <vehicle id="f_1.5" depart="18.00">
        <route edges="DR2 RD1"/>
    </vehicle>
    <vehicle id="f_10.5" depart="18.00">
        <route edges="LD1 RD1"/>
    </vehicle>
    <vehicle id="f_11.5" depart="18.00">
        <route edges="LD1 RD1"/>
    </vehicle>
    <vehicle id="f_12.5" depart="18.00">
        <route edges="LD1 UR2"/>
    </vehicle>
    <vehicle id="f_13.5" depart="18.00">
        <route edges="UL2 LU1"/>
    </vehicle>
    <vehicle id="f_14.5" depart="18.00">
        <route edges="UL2 RD1"/>
    </vehicle>
    <vehicle id="f_15.5" depart="18.00">
        <route edges="UL2 DL2"/>
    </vehicle>
    <vehicle id="f_2.5" depart="18.00">
        <route edges="DR2 UR2"/>
    </vehicle>
    <vehicle id="f_3.5" depart="18.00">
        <route edges="RU1 LU1"/>
    </vehicle>
    <vehicle id="f_4.5" depart="18.00">
        <route edges="RU1 LU1"/>
    </vehicle>
    <vehicle id="f_5.5" depart="18.00">
        <route edges="RU1 LU1"/>
    </vehicle>
    <vehicle id="f_6.5" depart="18.00">
        <route edges="RU1 UR2"/>
    </vehicle>
    <vehicle id="f_7.5" depart="18.00">
        <route edges="RU1 DL2"/>
    </vehicle>
    <vehicle id="f_8.5" depart="18.00">
        <route edges="LD1 DL2"/>
    </vehicle>
    <vehicle id="f_9.5" depart="18.00">
        <route edges="LD1 RD1"/>
    </vehicle>
    <vehicle id="f_0.28" depart="18.65">
        <route edges="DR2 LU1"/>
    </vehicle>
    <vehicle id="f_0.29" depart="19.31">
        <route edges="DR2 LU1"/>
    </vehicle>
    <vehicle id="f_0.30" depart="19.98">
        <route edges="DR2 LU1"/>
    </vehicle>
    <vehicle id="f_0.31" depart="20.65">
        <route edges="DR2 LU1"/>
    </vehicle>
    <vehicle id="f_0.32" depart="21.31">
        <route edges="DR2 LU1"/>
    </vehicle>
    <vehicle id="f_1.6" depart="21.60">
        <route edges="DR2 RD1"/>
    </vehicle>
    <vehicle id="f_10.6" depart="21.60">
        <route edges="LD1 RD1"/>
    </vehicle>
    <vehicle id="f_11.6" depart="21.60">
        <route edges="LD1 RD1"/>
    </vehicle>
    <vehicle id="f_12.6" depart="21.60">
        <route edges="LD1 UR2"/>
    </vehicle>
    <vehicle id="f_13.6" depart="21.60">
        <route edges="UL2 LU1"/>
    </vehicle>
    <vehicle id="f_14.6" depart="21.60">
        <route edges="UL2 RD1"/>
    </vehicle>
    <vehicle id="f_15.6" depart="21.60">
        <route edges="UL2 DL2"/>
    </vehicle>
    <vehicle id="f_2.6" depart="21.60">
        <route edges="DR2 UR2"/>
    </vehicle>
    <vehicle id="f_3.6" depart="21.60">
        <route edges="RU1 LU1"/>
    </vehicle>
    <vehicle id="f_4.6" depart="21.60">
        <route edges="RU1 LU1"/>
    </vehicle>
    <vehicle id="f_5.6" depart="21.60">
        <route edges="RU1 LU1"/>
    </vehicle>
    <vehicle id="f_6.6" depart="21.60">
        <route edges="RU1 UR2"/>
    </vehicle>
    <vehicle id="f_7.6" depart="21.60">
        <route edges="RU1 DL2"/>
    </vehicle>
    <vehicle id="f_8.6" depart="21.60">
        <route edges="LD1 DL2"/>
    </vehicle>
    <vehicle id="f_9.6" depart="21.60">
        <route edges="LD1 RD1"/>
    </vehicle>
    <vehicle id="f_0.33" depart="21.98">
        <route edges="DR2 LU1"/>
    </vehicle>
    <vehicle id="f_0.34" depart="22.64">
        <route edges="DR2 LU1"/>
    </vehicle>
    <vehicle id="f_0.35" depart="23.31">
        <route edges="DR2 LU1"/>
    </vehicle>
    <vehicle id="f_0.36" depart="23.98">
        <route edges="DR2 LU1"/>
    </vehicle>
    <vehicle id="f_0.37" depart="24.64">
        <route edges="DR2 LU1"/>
    </vehicle>
    <vehicle id="f_1.7" depart="25.20">
        <route edges="DR2 RD1"/>
    </vehicle>
    <vehicle id="f_10.7" depart="25.20">
        <route edges="LD1 RD1"/>
    </vehicle>
    <vehicle id="f_11.7" depart="25.20">
        <route edges="LD1 RD1"/>
    </vehicle>
    <vehicle id="f_12.7" depart="25.20">
        <route edges="LD1 UR2"/>
    </vehicle>
    <vehicle id="f_13.7" depart="25.20">
        <route edges="UL2 LU1"/>
    </vehicle>
    <vehicle id="f_14.7" depart="25.20">
        <route edges="UL2 RD1"/>
    </vehicle>
    <vehicle id="f_15.7" depart="25.20">
        <route edges="UL2 DL2"/>
    </vehicle>
    <vehicle id="f_2.7" depart="25.20">
        <route edges="DR2 UR2"/>
    </vehicle>
    <vehicle id="f_3.7" depart="25.20">
        <route edges="RU1 LU1"/>
    </vehicle>
    <vehicle id="f_4.7" depart="25.20">
        <route edges="RU1 LU1"/>
    </vehicle>
    <vehicle id="f_5.7" depart="25.20">
        <route edges="RU1 LU1"/>
    </vehicle>
    <vehicle id="f_6.7" depart="25.20">
        <route edges="RU1 UR2"/>
    </vehicle>
    <vehicle id="f_7.7" depart="25.20">
        <route edges="RU1 DL2"/>
    </vehicle>
    <vehicle id="f_8.7" depart="25.20">
        <route edges="LD1 DL2"/>
    </vehicle>
    <vehicle id="f_9.7" depart="25.20">
        <route edges="LD1 RD1"/>
    </vehicle>
    <vehicle id="f_0.38" depart="25.31">
        <route edges="DR2 LU1"/>
    </vehicle>
    <vehicle id="f_0.39" depart="25.97">
        <route edges="DR2 LU1"/>
    </vehicle>
    <vehicle id="f_0.40" depart="26.64">
        <route edges="DR2 LU1"/>
    </vehicle>
    <vehicle id="f_0.41" depart="27.31">
        <route edges="DR2 LU1"/>
    </vehicle>
    <vehicle id="f_0.42" depart="27.97">
        <route edges="DR2 LU1"/>
    </vehicle>
    <vehicle id="f_0.43" depart="28.64">
        <route edges="DR2 LU1"/>
    </vehicle>
    <vehicle id="f_1.8" depart="28.80">
        <route edges="DR2 RD1"/>
    </vehicle>
    <vehicle id="f_10.8" depart="28.80">
        <route edges="LD1 RD1"/>
    </vehicle>
    <vehicle id="f_11.8" depart="28.80">
        <route edges="LD1 RD1"/>
    </vehicle>
    <vehicle id="f_12.8" depart="28.80">
        <route edges="LD1 UR2"/>
    </vehicle>
    <vehicle id="f_13.8" depart="28.80">
        <route edges="UL2 LU1"/>
    </vehicle>
    <vehicle id="f_14.8" depart="28.80">
        <route edges="UL2 RD1"/>
    </vehicle>
    <vehicle id="f_15.8" depart="28.80">
        <route edges="UL2 DL2"/>
    </vehicle>
    <vehicle id="f_2.8" depart="28.80">
        <route edges="DR2 UR2"/>
    </vehicle>
    <vehicle id="f_3.8" depart="28.80">
        <route edges="RU1 LU1"/>
    </vehicle>
    <vehicle id="f_4.8" depart="28.80">
        <route edges="RU1 LU1"/>
    </vehicle>
    <vehicle id="f_5.8" depart="28.80">
        <route edges="RU1 LU1"/>
    </vehicle>
    <vehicle id="f_6.8" depart="28.80">
        <route edges="RU1 UR2"/>
    </vehicle>
    <vehicle id="f_7.8" depart="28.80">
        <route edges="RU1 DL2"/>
    </vehicle>
    <vehicle id="f_8.8" depart="28.80">
        <route edges="LD1 DL2"/>
    </vehicle>
    <vehicle id="f_9.8" depart="28.80">
        <route edges="LD1 RD1"/>
    </vehicle>
    <vehicle id="f_0.44" depart="29.30">
        <route edges="DR2 LU1"/>
    </vehicle>
    <vehicle id="f_0.45" depart="29.97">
        <route edges="DR2 LU1"/>
    </vehicle>
    <vehicle id="f_0.46" depart="30.64">
        <route edges="DR2 LU1"/>
    </vehicle>
    <vehicle id="f_0.47" depart="31.30">
        <route edges="DR2 LU1"/>
    </vehicle>
    <vehicle id="f_0.48" depart="31.97">
        <route edges="DR2 LU1"/>
    </vehicle>
    <vehicle id="f_1.9" depart="32.40">
        <route edges="DR2 RD1"/>
    </vehicle>
    <vehicle id="f_10.9" depart="32.40">
        <route edges="LD1 RD1"/>
    </vehicle>
    <vehicle id="f_11.9" depart="32.40">
        <route edges="LD1 RD1"/>
    </vehicle>
    <vehicle id="f_12.9" depart="32.40">
        <route edges="LD1 UR2"/>
    </vehicle>
    <vehicle id="f_13.9" depart="32.40">
        <route edges="UL2 LU1"/>
    </vehicle>
    <vehicle id="f_14.9" depart="32.40">
        <route edges="UL2 RD1"/>
    </vehicle>
    <vehicle id="f_15.9" depart="32.40">
        <route edges="UL2 DL2"/>
    </vehicle>
    <vehicle id="f_2.9" depart="32.40">
        <route edges="DR2 UR2"/>
    </vehicle>
    <vehicle id="f_3.9" depart="32.40">
        <route edges="RU1 LU1"/>
    </vehicle>
    <vehicle id="f_4.9" depart="32.40">
        <route edges="RU1 LU1"/>
    </vehicle>
    <vehicle id="f_5.9" depart="32.40">
        <route edges="RU1 LU1"/>
    </vehicle>
    <vehicle id="f_6.9" depart="32.40">
        <route edges="RU1 UR2"/>
    </vehicle>
    <vehicle id="f_7.9" depart="32.40">
        <route edges="RU1 DL2"/>
    </vehicle>
    <vehicle id="f_8.9" depart="32.40">
        <route edges="LD1 DL2"/>
    </vehicle>
    <vehicle id="f_9.9" depart="32.40">
        <route edges="LD1 RD1"/>
    </vehicle>
    <vehicle id="f_0.49" depart="32.63">
        <route edges="DR2 LU1"/>
    </vehicle>
    <vehicle id="f_0.50" depart="33.30">
        <route edges="DR2 LU1"/>
    </vehicle>
    <vehicle id="f_0.51" depart="33.97">
        <route edges="DR2 LU1"/>
    </vehicle>
    <vehicle id="f_0.52" depart="34.63">
        <route edges="DR2 LU1"/>
    </vehicle>
    <vehicle id="f_0.53" depart="35.30">
        <route edges="DR2 LU1"/>
    </vehicle>
    <vehicle id="f_0.54" depart="35.96">
        <route edges="DR2 LU1"/>
    </vehicle>
    <vehicle id="f_1.10" depart="36.00">
        <route edges="DR2 RD1"/>
    </vehicle>
    <vehicle id="f_10.10" depart="36.00">
        <route edges="LD1 RD1"/>
    </vehicle>
    <vehicle id="f_11.10" depart="36.00">
        <route edges="LD1 RD1"/>
    </vehicle>
    <vehicle id="f_12.10" depart="36.00">
        <route edges="LD1 UR2"/>
    </vehicle>
    <vehicle id="f_13.10" depart="36.00">
        <route edges="UL2 LU1"/>
    </vehicle>
    <vehicle id="f_14.10" depart="36.00">
        <route edges="UL2 RD1"/>
    </vehicle>
    <vehicle id="f_15.10" depart="36.00">
        <route edges="UL2 DL2"/>
    </vehicle>
    <vehicle id="f_2.10" depart="36.00">
        <route edges="DR2 UR2"/>
    </vehicle>
    <vehicle id="f_3.10" depart="36.00">
        <route edges="RU1 LU1"/>
    </vehicle>
    <vehicle id="f_4.10" depart="36.00">
        <route edges="RU1 LU1"/>
    </vehicle>
    <vehicle id="f_5.10" depart="36.00">
        <route edges="RU1 LU1"/>
    </vehicle>
    <vehicle id="f_6.10" depart="36.00">
        <route edges="RU1 UR2"/>
    </vehicle>
    <vehicle id="f_7.10" depart="36.00">
        <route edges="RU1 DL2"/>
    </vehicle>
    <vehicle id="f_8.10" depart="36.00">
        <route edges="LD1 DL2"/>
    </vehicle>
    <vehicle id="f_9.10" depart="36.00">
        <route edges="LD1 RD1"/>
    </vehicle>
    <vehicle id="f_0.55" depart="36.63">
        <route edges="DR2 LU1"/>
    </vehicle>
    <vehicle id="f_0.56" depart="37.30">
        <route edges="DR2 LU1"/>
    </vehicle>
    <vehicle id="f_0.57" depart="37.96">
        <route edges="DR2 LU1"/>
    </vehicle>
    <vehicle id="f_0.58" depart="38.63">
        <route edges="DR2 LU1"/>
    </vehicle>
    <vehicle id="f_0.59" depart="39.29">
        <route edges="DR2 LU1"/>
    </vehicle>
    <vehicle id="f_1.11" depart="39.60">
        <route edges="DR2 RD1"/>
    </vehicle>
    <vehicle id="f_10.11" depart="39.60">
        <route edges="LD1 RD1"/>
    </vehicle>
    <vehicle id="f_11.11" depart="39.60">
        <route edges="LD1 RD1"/>
    </vehicle>
    <vehicle id="f_12.11" depart="39.60">
        <route edges="LD1 UR2"/>
    </vehicle>
    <vehicle id="f_13.11" depart="39.60">
        <route edges="UL2 LU1"/>
    </vehicle>
    <vehicle id="f_14.11" depart="39.60">
        <route edges="UL2 RD1"/>
    </vehicle>
    <vehicle id="f_15.11" depart="39.60">
        <route edges="UL2 DL2"/>
    </vehicle>
    <vehicle id="f_2.11" depart="39.60">
        <route edges="DR2 UR2"/>
    </vehicle>
    <vehicle id="f_3.11" depart="39.60">
        <route edges="RU1 LU1"/>
    </vehicle>
    <vehicle id="f_4.11" depart="39.60">
        <route edges="RU1 LU1"/>
    </vehicle>
    <vehicle id="f_5.11" depart="39.60">
        <route edges="RU1 LU1"/>
    </vehicle>
    <vehicle id="f_6.11" depart="39.60">
        <route edges="RU1 UR2"/>
    </vehicle>
    <vehicle id="f_7.11" depart="39.60">
        <route edges="RU1 DL2"/>
    </vehicle>
    <vehicle id="f_8.11" depart="39.60">
        <route edges="LD1 DL2"/>
    </vehicle>
    <vehicle id="f_9.11" depart="39.60">
        <route edges="LD1 RD1"/>
    </vehicle>
    <vehicle id="f_0.60" depart="39.96">
        <route edges="DR2 LU1"/>
    </vehicle>
    <vehicle id="f_0.61" depart="40.63">
        <route edges="DR2 LU1"/>
    </vehicle>
    <vehicle id="f_0.62" depart="41.29">
        <route edges="DR2 LU1"/>
    </vehicle>
    <vehicle id="f_0.63" depart="41.96">
        <route edges="DR2 LU1"/>
    </vehicle>
    <vehicle id="f_0.64" depart="42.62">
        <route edges="DR2 LU1"/>
    </vehicle>
    <vehicle id="f_1.12" depart="43.20">
        <route edges="DR2 RD1"/>
    </vehicle>
    <vehicle id="f_10.12" depart="43.20">
        <route edges="LD1 RD1"/>
    </vehicle>
    <vehicle id="f_11.12" depart="43.20">
        <route edges="LD1 RD1"/>
    </vehicle>
    <vehicle id="f_12.12" depart="43.20">
        <route edges="LD1 UR2"/>
    </vehicle>
    <vehicle id="f_13.12" depart="43.20">
        <route edges="UL2 LU1"/>
    </vehicle>
    <vehicle id="f_14.12" depart="43.20">
        <route edges="UL2 RD1"/>
    </vehicle>
    <vehicle id="f_15.12" depart="43.20">
        <route edges="UL2 DL2"/>
    </vehicle>
    <vehicle id="f_2.12" depart="43.20">
        <route edges="DR2 UR2"/>
    </vehicle>
    <vehicle id="f_3.12" depart="43.20">
        <route edges="RU1 LU1"/>
    </vehicle>
    <vehicle id="f_4.12" depart="43.20">
        <route edges="RU1 LU1"/>
    </vehicle>
    <vehicle id="f_5.12" depart="43.20">
        <route edges="RU1 LU1"/>
    </vehicle>
    <vehicle id="f_6.12" depart="43.20">
        <route edges="RU1 UR2"/>
    </vehicle>
    <vehicle id="f_7.12" depart="43.20">
        <route edges="RU1 DL2"/>
    </vehicle>
    <vehicle id="f_8.12" depart="43.20">
        <route edges="LD1 DL2"/>
    </vehicle>
    <vehicle id="f_9.12" depart="43.20">
        <route edges="LD1 RD1"/>
    </vehicle>
    <vehicle id="f_0.65" depart="43.29">
        <route edges="DR2 LU1"/>
    </vehicle>
    <vehicle id="f_0.66" depart="43.96">
        <route edges="DR2 LU1"/>
    </vehicle>
    <vehicle id="f_0.67" depart="44.62">
        <route edges="DR2 LU1"/>
    </vehicle>
    <vehicle id="f_0.68" depart="45.29">
        <route edges="DR2 LU1"/>
    </vehicle>
    <vehicle id="f_0.69" depart="45.95">
        <route edges="DR2 LU1"/>
    </vehicle>
    <vehicle id="f_0.70" depart="46.62">
        <route edges="DR2 LU1"/>
    </vehicle>
    <vehicle id="f_1.13" depart="46.80">
        <route edges="DR2 RD1"/>
    </vehicle>
    <vehicle id="f_10.13" depart="46.80">
        <route edges="LD1 RD1"/>
    </vehicle>
    <vehicle id="f_11.13" depart="46.80">
        <route edges="LD1 RD1"/>
    </vehicle>
    <vehicle id="f_12.13" depart="46.80">
        <route edges="LD1 UR2"/>
    </vehicle>
    <vehicle id="f_13.13" depart="46.80">
        <route edges="UL2 LU1"/>
    </vehicle>
    <vehicle id="f_14.13" depart="46.80">
        <route edges="UL2 RD1"/>
    </vehicle>
    <vehicle id="f_15.13" depart="46.80">
        <route edges="UL2 DL2"/>
    </vehicle>
    <vehicle id="f_2.13" depart="46.80">
        <route edges="DR2 UR2"/>
    </vehicle>
    <vehicle id="f_3.13" depart="46.80">
        <route edges="RU1 LU1"/>
    </vehicle>
    <vehicle id="f_4.13" depart="46.80">
        <route edges="RU1 LU1"/>
    </vehicle>
    <vehicle id="f_5.13" depart="46.80">
        <route edges="RU1 LU1"/>
    </vehicle>
    <vehicle id="f_6.13" depart="46.80">
        <route edges="RU1 UR2"/>
    </vehicle>
    <vehicle id="f_7.13" depart="46.80">
        <route edges="RU1 DL2"/>
    </vehicle>
    <vehicle id="f_8.13" depart="46.80">
        <route edges="LD1 DL2"/>
    </vehicle>
    <vehicle id="f_9.13" depart="46.80">
        <route edges="LD1 RD1"/>
    </vehicle>
    <vehicle id="f_0.71" depart="47.29">
        <route edges="DR2 LU1"/>
    </vehicle>
    <vehicle id="f_0.72" depart="47.95">
        <route edges="DR2 LU1"/>
    </vehicle>
    <vehicle id="f_0.73" depart="48.62">
        <route edges="DR2 LU1"/>
    </vehicle>
    <vehicle id="f_0.74" depart="49.28">
        <route edges="DR2 LU1"/>
    </vehicle>
    <vehicle id="f_0.75" depart="49.95">
        <route edges="DR2 LU1"/>
    </vehicle>
    <vehicle id="f_1.14" depart="50.40">
        <route edges="DR2 RD1"/>
    </vehicle>
    <vehicle id="f_10.14" depart="50.40">
        <route edges="LD1 RD1"/>
    </vehicle>
    <vehicle id="f_11.14" depart="50.40">
        <route edges="LD1 RD1"/>
    </vehicle>
    <vehicle id="f_12.14" depart="50.40">
        <route edges="LD1 UR2"/>
    </vehicle>
    <vehicle id="f_13.14" depart="50.40">
        <route edges="UL2 LU1"/>
    </vehicle>
    <vehicle id="f_14.14" depart="50.40">
        <route edges="UL2 RD1"/>
    </vehicle>
    <vehicle id="f_15.14" depart="50.40">
        <route edges="UL2 DL2"/>
    </vehicle>
    <vehicle id="f_2.14" depart="50.40">
        <route edges="DR2 UR2"/>
    </vehicle>
    <vehicle id="f_3.14" depart="50.40">
        <route edges="RU1 LU1"/>
    </vehicle>
    <vehicle id="f_4.14" depart="50.40">
        <route edges="RU1 LU1"/>
    </vehicle>
    <vehicle id="f_5.14" depart="50.40">
        <route edges="RU1 LU1"/>
    </vehicle>
    <vehicle id="f_6.14" depart="50.40">
        <route edges="RU1 UR2"/>
    </vehicle>
    <vehicle id="f_7.14" depart="50.40">
        <route edges="RU1 DL2"/>
    </vehicle>
    <vehicle id="f_8.14" depart="50.40">
        <route edges="LD1 DL2"/>
    </vehicle>
    <vehicle id="f_9.14" depart="50.40">
        <route edges="LD1 RD1"/>
    </vehicle>
    <vehicle id="f_0.76" depart="50.62">
        <route edges="DR2 LU1"/>
    </vehicle>
    <vehicle id="f_0.77" depart="51.28">
        <route edges="DR2 LU1"/>
    </vehicle>
    <vehicle id="f_0.78" depart="51.95">
        <route edges="DR2 LU1"/>
    </vehicle>
    <vehicle id="f_0.79" depart="52.61">
        <route edges="DR2 LU1"/>
    </vehicle>
    <vehicle id="f_0.80" depart="53.28">
        <route edges="DR2 LU1"/>
    </vehicle>
    <vehicle id="f_0.81" depart="53.95">
        <route edges="DR2 LU1"/>
    </vehicle>
    <vehicle id="f_1.15" depart="54.00">
        <route edges="DR2 RD1"/>
    </vehicle>
    <vehicle id="f_10.15" depart="54.00">
        <route edges="LD1 RD1"/>
    </vehicle>
    <vehicle id="f_11.15" depart="54.00">
        <route edges="LD1 RD1"/>
    </vehicle>
    <vehicle id="f_12.15" depart="54.00">
        <route edges="LD1 UR2"/>
    </vehicle>
    <vehicle id="f_13.15" depart="54.00">
        <route edges="UL2 LU1"/>
    </vehicle>
    <vehicle id="f_14.15" depart="54.00">
        <route edges="UL2 RD1"/>
    </vehicle>
    <vehicle id="f_15.15" depart="54.00">
        <route edges="UL2 DL2"/>
    </vehicle>
    <vehicle id="f_2.15" depart="54.00">
        <route edges="DR2 UR2"/>
    </vehicle>
    <vehicle id="f_3.15" depart="54.00">
        <route edges="RU1 LU1"/>
    </vehicle>
    <vehicle id="f_4.15" depart="54.00">
        <route edges="RU1 LU1"/>
    </vehicle>
    <vehicle id="f_5.15" depart="54.00">
        <route edges="RU1 LU1"/>
    </vehicle>
    <vehicle id="f_6.15" depart="54.00">
        <route edges="RU1 UR2"/>
    </vehicle>
    <vehicle id="f_7.15" depart="54.00">
        <route edges="RU1 DL2"/>
    </vehicle>
    <vehicle id="f_8.15" depart="54.00">
        <route edges="LD1 DL2"/>
    </vehicle>
    <vehicle id="f_9.15" depart="54.00">
        <route edges="LD1 RD1"/>
    </vehicle>
    <vehicle id="f_0.82" depart="54.61">
        <route edges="DR2 LU1"/>
    </vehicle>
    <vehicle id="f_0.83" depart="55.28">
        <route edges="DR2 LU1"/>
    </vehicle>
    <vehicle id="f_0.84" depart="55.94">
        <route edges="DR2 LU1"/>
    </vehicle>
    <vehicle id="f_0.85" depart="56.61">
        <route edges="DR2 LU1"/>
    </vehicle>
    <vehicle id="f_0.86" depart="57.28">
        <route edges="DR2 LU1"/>
    </vehicle>
    <vehicle id="f_1.16" depart="57.60">
        <route edges="DR2 RD1"/>
    </vehicle>
    <vehicle id="f_10.16" depart="57.60">
        <route edges="LD1 RD1"/>
    </vehicle>