<?xml version="1.0" encoding="UTF-8"?>

<!-- generated on 2025-12-16 16:48:14 by Eclipse SUMO netedit Version 1.24.0
<neteditConfiguration xmlns:xsi="http://www.w3.org/2001/XMLSchema-instance" xsi:noNamespaceSchemaLocation="http://sumo.dlr.de/xsd/neteditConfiguration.xsd">

    <input>
        <sumo-net-file value="C:\Users\Asus\SUMO_WORKS\net\baneswor_final.net.xml"/>
    </input>

    <output>
        <output-file value="C:\Users\Asus\SUMO_WORKS\net\baneswor_final.net.xml"/>
    </output>

    <processing>
        <offset.disable-normalization value="true"/>
        <lefthand value="true"/>
    </processing>

    <junctions>
        <no-turnarounds value="true"/>
    </junctions>

    <netedit>
        <new-network value="false"/>
    </netedit>

</neteditConfiguration>
-->

<net version="1.20" junctionCornerDetail="5" lefthand="true" limitTurnSpeed="5.50" xmlns:xsi="http://www.w3.org/2001/XMLSchema-instance" xsi:noNamespaceSchemaLocation="http://sumo.dlr.de/xsd/net_file.xsd">

    <location netOffset="0.00,-0.00" convBoundary="-200.00,-200.00,200.00,200.00" origBoundary="10000000000.00,10000000000.00,-10000000000.00,-10000000000.00" projParameter="!"/>

    <edge id=":J1_0" function="internal">
        <lane id=":J1_0_0" index="0" speed="7.33" length="11.73" shape="-8.00,-20.00 -8.35,-16.15 -9.40,-13.40 -11.15,-11.75 -13.60,-11.20"/>
    </edge>
    <edge id=":J1_1" function="internal">
        <lane id=":J1_1_0" index="0" speed="13.89" length="40.13" shape="-4.80,-20.00 -1.60,20.00"/>
    </edge>
    <edge id=":J1_2" function="internal">
        <lane id=":J1_2_0" index="0" speed="11.39" length="29.85" shape="-1.60,-20.00 -0.65,-10.55 2.20,-3.80 6.95,0.25 13.60,1.60"/>
    </edge>
    <edge id=":J1_3" function="internal">
        <lane id=":J1_3_0" index="0" speed="7.33" length="11.73" shape="13.60,-14.40 9.75,-14.75 7.00,-15.80 5.35,-17.55 4.80,-20.00"/>
    </edge>
    <edge id=":J1_4" function="internal">
        <lane id=":J1_4_0" index="0" speed="13.89" length="27.45" shape="13.60,-11.20 5.50,-10.70 -0.00,-9.60 -5.50,-8.50 -13.60,-8.00"/>
        <lane id=":J1_4_1" index="1" speed="13.89" length="27.45" shape="13.60,-8.00 5.50,-7.50 -0.00,-6.40 -5.50,-5.30 -13.60,-4.80"/>
        <lane id=":J1_4_2" index="2" speed="13.89" length="27.45" shape="13.60,-4.80 5.50,-4.30 -0.00,-3.20 -5.50,-2.10 -13.60,-1.60"/>
    </edge>
    <edge id=":J1_7" function="internal">
        <lane id=":J1_7_0" index="0" speed="11.39" length="29.85" shape="13.60,-1.60 6.95,-0.25 2.20,3.80 -0.65,10.55 -1.60,20.00"/>
    </edge>
    <edge id=":J1_8" function="internal">
        <lane id=":J1_8_0" index="0" speed="7.33" length="11.73" shape="8.00,20.00 8.35,16.15 9.40,13.40 11.15,11.75 13.60,11.20"/>
    </edge>
    <edge id=":J1_9" function="internal">
        <lane id=":J1_9_0" index="0" speed="13.89" length="40.13" shape="4.80,20.00 1.60,-20.00"/>
    </edge>
    <edge id=":J1_10" function="internal">
        <lane id=":J1_10_0" index="0" speed="11.39" length="29.85" shape="1.60,20.00 0.65,10.55 -2.20,3.80 -6.95,-0.25 -13.60,-1.60"/>
    </edge>
    <edge id=":J1_11" function="internal">
        <lane id=":J1_11_0" index="0" speed="7.33" length="11.73" shape="-13.60,14.40 -9.75,14.75 -7.00,15.80 -5.35,17.55 -4.80,20.00"/>
    </edge>
    <edge id=":J1_12" function="internal">
        <lane id=":J1_12_0" index="0" speed="13.89" length="27.45" shape="-13.60,11.20 -5.50,10.70 0.00,9.60 5.50,8.50 13.60,8.00"/>
        <lane id=":J1_12_1" index="1" speed="13.89" length="27.45" shape="-13.60,8.00 -5.50,7.50 0.00,6.40 5.50,5.30 13.60,4.80"/>
        <lane id=":J1_12_2" index="2" speed="13.89" length="27.45" shape="-13.60,4.80 -5.50,4.30 0.00,3.20 5.50,2.10 13.60,1.60"/>
    </edge>
    <edge id=":J1_15" function="internal">
        <lane id=":J1_15_0" index="0" speed="11.39" length="29.85" shape="-13.60,1.60 -6.95,0.25 -2.20,-3.80 0.65,-10.55 1.60,-20.00"/>
    </edge>

    <edge id="DL2" from="J1" to="J4" priority="-1">
        <lane id="DL2_0" index="0" speed="13.89" length="180.00" shape="4.80,-20.00 4.80,-200.00"/>
        <lane id="DL2_1" index="1" speed="13.89" length="180.00" shape="1.60,-20.00 1.60,-200.00"/>
    </edge>
    <edge id="DR2" from="J4" to="J1" priority="-1">
        <lane id="DR2_0" index="0" speed="13.89" length="180.00" shape="-8.00,-200.00 -8.00,-20.00"/>
        <lane id="DR2_1" index="1" speed="13.89" length="180.00" shape="-4.80,-200.00 -4.80,-20.00"/>
        <lane id="DR2_2" index="2" speed="13.89" length="180.00" shape="-1.60,-200.00 -1.60,-20.00"/>
    </edge>
    <edge id="LD1" from="J0" to="J1" priority="-1">
        <lane id="LD1_0" index="0" speed="13.89" length="186.40" shape="-200.00,14.40 -13.60,14.40"/>
        <lane id="LD1_1" index="1" speed="13.89" length="186.40" shape="-200.00,11.20 -13.60,11.20"/>
        <lane id="LD1_2" index="2" speed="13.89" length="186.40" shape="-200.00,8.00 -13.60,8.00"/>
        <lane id="LD1_3" index="3" speed="13.89" length="186.40" shape="-200.00,4.80 -13.60,4.80"/>
        <lane id="LD1_4" index="4" speed="13.89" length="186.40" shape="-200.00,1.60 -13.60,1.60"/>
    </edge>
    <edge id="LU1" from="J1" to="J0" priority="-1">
        <lane id="LU1_0" index="0" speed="13.89" length="186.40" shape="-13.60,-11.20 -200.00,-11.20"/>
        <lane id="LU1_1" index="1" speed="13.89" length="186.40" shape="-13.60,-8.00 -200.00,-8.00"/>
        <lane id="LU1_2" index="2" speed="13.89" length="186.40" shape="-13.60,-4.80 -200.00,-4.80"/>
        <lane id="LU1_3" index="3" speed="13.89" length="186.40" shape="-13.60,-1.60 -200.00,-1.60"/>
    </edge>
    <edge id="RD1" from="J1" to="J2" priority="-1">
        <lane id="RD1_0" index="0" speed="13.89" length="186.40" shape="13.60,11.20 200.00,11.20"/>
        <lane id="RD1_1" index="1" speed="13.89" length="186.40" shape="13.60,8.00 200.00,8.00"/>
        <lane id="RD1_2" index="2" speed="13.89" length="186.40" shape="13.60,4.80 200.00,4.80"/>
        <lane id="RD1_3" index="3" speed="13.89" length="186.40" shape="13.60,1.60 200.00,1.60"/>
    </edge>
    <edge id="RU1" from="J2" to="J1" priority="-1">
        <lane id="RU1_0" index="0" speed="13.89" length="186.40" shape="200.00,-14.40 13.60,-14.40"/>
        <lane id="RU1_1" index="1" speed="13.89" length="186.40" shape="200.00,-11.20 13.60,-11.20"/>
        <lane id="RU1_2" index="2" speed="13.89" length="186.40" shape="200.00,-8.00 13.60,-8.00"/>
        <lane id="RU1_3" index="3" speed="13.89" length="186.40" shape="200.00,-4.80 13.60,-4.80"/>
        <lane id="RU1_4" index="4" speed="13.89" length="186.40" shape="200.00,-1.60 13.60,-1.60"/>
    </edge>
    <edge id="UL2" from="J3" to="J1" priority="-1">
        <lane id="UL2_0" index="0" speed="13.89" length="180.00" shape="8.00,200.00 8.00,20.00"/>
        <lane id="UL2_1" index="1" speed="13.89" length="180.00" shape="4.80,200.00 4.80,20.00"/>
        <lane id="UL2_2" index="2" speed="13.89" length="180.00" shape="1.60,200.00 1.60,20.00"/>
    </edge>
    <edge id="UR2" from="J1" to="J3" priority="-1">
        <lane id="UR2_0" index="0" speed="13.89" length="180.00" shape="-4.80,20.00 -4.80,200.00"/>
        <lane id="UR2_1" index="1" speed="13.89" length="180.00" shape="-1.60,20.00 -1.60,200.00"/>
    </edge>

    <tlLogic id="J1" type="static" programID="0" offset="0">
        <phase duration="45" state="gGGgrrrrgyygrrrr"/>
        <phase duration="40" state="grrgrrrygGGgrrry"/>
        <phase duration="35" state="grrgyyyGgrrgyyyG"/>
        <phase duration="95" state="grrgGGGrgrrgGGGr"/>
    </tlLogic>

    <junction id="J0" type="dead_end" x="-200.00" y="0.00" incLanes="LU1_0 LU1_1 LU1_2 LU1_3" intLanes="" shape="-200.00,-0.00 -200.00,-12.80 -200.00,-0.00"/>
    <junction id="J1" type="traffic_light" x="0.00" y="0.00" incLanes="DR2_0 DR2_1 DR2_2 RU1_0 RU1_1 RU1_2 RU1_3 RU1_4 UL2_0 UL2_1 UL2_2 LD1_0 LD1_1 LD1_2 LD1_3 LD1_4" intLanes=":J1_0_0 :J1_1_0 :J1_2_0 :J1_3_0 :J1_4_0 :J1_4_1 :J1_4_2 :J1_7_0 :J1_8_0 :J1_9_0 :J1_10_0 :J1_11_0 :J1_12_0 :J1_12_1 :J1_12_2 :J1_15_0" shape="-9.60,-20.00 6.40,-20.00 7.20,-17.78 8.20,-17.00 9.60,-16.44 11.40,-16.11 13.60,-16.00 13.60,12.80 11.38,13.60 10.60,14.60 10.04,16.00 9.71,17.80 9.60,20.00 -6.40,20.00 -7.20,17.78 -8.20,17.00 -9.60,16.44 -11.40,16.11 -13.60,16.00 -13.60,-12.80 -11.38,-13.60 -10.60,-14.60 -10.04,-16.00 -9.71,-17.80">
        <request index="0"  response="0000010000000000" foes="0000000000000000" cont="0"/>
        <request index="1"  response="1111000011110000" foes="1111010011110000" cont="0"/>
        <request index="2"  response="1111001011110000" foes="1111001011110000" cont="0"/>
        <request index="3"  response="1000001000000000" foes="0000000000000000" cont="0"/>
        <request index="4"  response="0000000000000000" foes="1000011000000110" cont="0"/>
        <request index="5"  response="0000000000000000" foes="1000011000000110" cont="0"/>
        <request index="6"  response="0000000000000000" foes="1000011000000110" cont="0"/>
        <request index="7"  response="0111000000000000" foes="0111011000000110" cont="0"/>
        <request index="8"  response="0000000000000100" foes="0000000000000000" cont="0"/>
        <request index="9"  response="1111000011110000" foes="1111000011110100" cont="0"/>
        <request index="10" response="1111000011110010" foes="1111000011110010" cont="0"/>
        <request index="11" response="0000000010000010" foes="0000000000000000" cont="0"/>
        <request index="12" response="0000000000000000" foes="0000011010000110" cont="0"/>
        <request index="13" response="0000000000000000" foes="0000011010000110" cont="0"/>
        <request index="14" response="0000000000000000" foes="0000011010000110" cont="0"/>
        <request index="15" response="0000000001110000" foes="0000011001110110" cont="0"/>
    </junction>
    <junction id="J2" type="dead_end" x="200.00" y="0.00" incLanes="RD1_0 RD1_1 RD1_2 RD1_3" intLanes="" shape="200.00,-0.00 200.00,12.80 200.00,-0.00"/>
    <junction id="J3" type="dead_end" x="0.00" y="200.00" incLanes="UR2_0 UR2_1" intLanes="" shape="0.00,200.00 -6.40,200.00 0.00,200.00"/>
    <junction id="J4" type="dead_end" x="0.00" y="-200.00" incLanes="DL2_0 DL2_1" intLanes="" shape="0.00,-200.00 6.40,-200.00 0.00,-200.00"/>

    <connection from="DR2" to="LU1" fromLane="0" toLane="0" via=":J1_0_0" tl="J1" linkIndex="0" dir="l" state="o"/>
    <connection from="DR2" to="UR2" fromLane="1" toLane="1" via=":J1_1_0" tl="J1" linkIndex="1" dir="s" state="o"/>
    <connection from="DR2" to="RD1" fromLane="2" toLane="3" via=":J1_2_0" tl="J1" linkIndex="2" dir="r" state="o"/>
    <connection from="LD1" to="UR2" fromLane="0" toLane="0" via=":J1_11_0" tl="J1" linkIndex="11" dir="l" state="O"/>
    <connection from="LD1" to="RD1" fromLane="1" toLane="1" via=":J1_12_0" tl="J1" linkIndex="12" dir="s" state="O"/>
    <connection from="LD1" to="RD1" fromLane="2" toLane="2" via=":J1_12_1" tl="J1" linkIndex="13" dir="s" state="O"/>
    <connection from="LD1" to="RD1" fromLane="3" toLane="3" via=":J1_12_2" tl="J1" linkIndex="14" dir="s" state="O"/>
    <connection from="LD1" to="DL2" fromLane="4" toLane="1" via=":J1_15_0" tl="J1" linkIndex="15" dir="r" state="o"/>
    <connection from="RU1" to="DL2" fromLane="0" toLane="0" via=":J1_3_0" tl="J1" linkIndex="3" dir="l" state="O"/>
    <connection from="RU1" to="LU1" fromLane="1" toLane="1" via=":J1_4_0" tl="J1" linkIndex="4" dir="s" state="O"/>
    <connection from="RU1" to="LU1" fromLane="2" toLane="2" via=":J1_4_1" tl="J1" linkIndex="5" dir="s" state="O"/>
    <connection from="RU1" to="LU1" fromLane="3" toLane="3" via=":J1_4_2" tl="J1" linkIndex="6" dir="s" state="O"/>
    <connection from="RU1" to="UR2" fromLane="4" toLane="1" via=":J1_7_0" tl="J1" linkIndex="7" dir="r" state="o"/>
    <connection from="UL2" to="RD1" fromLane="0" toLane="0" via=":J1_8_0" tl="J1" linkIndex="8" dir="l" state="o"/>
    <connection from="UL2" to="DL2" fromLane="1" toLane="1" via=":J1_9_0" tl="J1" linkIndex="9" dir="s" state="o"/>
    <connection from="UL2" to="LU1" fromLane="2" toLane="3" via=":J1_10_0" tl="J1" linkIndex="10" dir="r" state="o"/>

    <connection from=":J1_0" to="LU1" fromLane="0" toLane="0" dir="l" state="M"/>
    <connection from=":J1_1" to="UR2" fromLane="0" toLane="1" dir="s" state="M"/>
    <connection from=":J1_2" to="RD1" fromLane="0" toLane="3" dir="r" state="M"/>
    <connection from=":J1_3" to="DL2" fromLane="0" toLane="0" dir="l" state="M"/>
    <connection from=":J1_4" to="LU1" fromLane="0" toLane="1" dir="s" state="M"/>
    <connection from=":J1_4" to="LU1" fromLane="1" toLane="2" dir="s" state="M"/>
    <connection from=":J1_4" to="LU1" fromLane="2" toLane="3" dir="s" state="M"/>
    <connection from=":J1_7" to="UR2" fromLane="0" toLane="1" dir="r" state="M"/>
    <connection from=":J1_8" to="RD1" fromLane="0" toLane="0" dir="l" state="M"/>
    <connection from=":J1_9" to="DL2" fromLane="0" toLane="1" dir="s" state="M"/>
    <connection from=":J1_10" to="LU1" fromLane="0" toLane="3" dir="r" state="M"/>
    <connection from=":J1_11" to="UR2" fromLane="0" toLane="0" dir="l" state="M"/>
    <connection from=":J1_12" to="RD1" fromLane="0" toLane="1" dir="s" state="M"/>
    <connection from=":J1_12" to="RD1" fromLane="1" toLane="2" dir="s" state="M"/>
    <connection from=":J1_12" to="RD1" fromLane="2" toLane="3" dir="s" state="M"/>
    <connection from=":J1_15" to="DL2" fromLane="0" toLane="1" dir="r" state="M"/>

</net>
