<routes>
    <vType accel="1.0" decel="4.5" id="standard_car" length="5.0" minGap="2.5" maxSpeed="25" sigma="0.5" />

    <!-- Routes for Baneswor Network -->
    <!-- From DR2 (Down-Right, coming from South) -->
    <route id="DR2_LU1" edges="DR2 LU1"/>
    <route id="DR2_UR2" edges="DR2 UR2"/>
    <route id="DR2_RD1" edges="DR2 RD1"/>
    
    <!-- From RU1 (Right-Up, coming from East) -->
    <route id="RU1_DL2" edges="RU1 DL2"/>
    <route id="RU1_LU1" edges="RU1 LU1"/>
    <route id="RU1_UR2" edges="RU1 UR2"/>
    
    <!-- From UL2 (Up-Left, coming from North) -->
    <route id="UL2_RD1" edges="UL2 RD1"/>
    <route id="UL2_DL2" edges="UL2 DL2"/>
    <route id="UL2_LU1" edges="UL2 LU1"/>
    
    <!-- From LD1 (Left-Down, coming from West) -->
    <route id="LD1_UR2" edges="LD1 UR2"/>
    <route id="LD1_RD1" edges="LD1 RD1"/>
    <route id="LD1_DL2" edges="LD1 DL2"/>
    <vehicle id="LD1_RD1_0" type="standard_car" route="LD1_RD1" depart="66.0" departLane="random" departSpeed="10" />
    <vehicle id="UL2_RD1_1" type="standard_car" route="UL2_RD1" depart="66.0" departLane="random" departSpeed="10" />
    <vehicle id="LD1_RD1_2" type="standard_car" route="LD1_RD1" depart="78.0" departLane="random" departSpeed="10" />
    <vehicle id="LD1_RD1_3" type="standard_car" route="LD1_RD1" depart="87.0" departLane="random" departSpeed="10" />
    <vehicle id="RU1_LU1_4" type="standard_car" route="RU1_LU1" depart="89.0" departLane="random" departSpeed="10" />
    <vehicle id="UL2_DL2_5" type="standard_car" route="UL2_DL2" depart="119.0" departLane="random" departSpeed="10" />
    <vehicle id="LD1_RD1_6" type="standard_car" route="LD1_RD1" depart="123.0" departLane="random" departSpeed="10" />
    <vehicle id="LD1_RD1_7" type="standard_car" route="LD1_RD1" depart="123.0" departLane="random" departSpeed="10" />
    <vehicle id="LD1_RD1_8" type="standard_car" route="LD1_RD1" depart="124.0" departLane="random" departSpeed="10" />
    <vehicle id="LD1_UR2_9" type="standard_car" route="LD1_UR2" depart="132.0" departLane="random" departSpeed="10" />
    <vehicle id="UL2_RD1_10" type="standard_car" route="UL2_RD1" depart="142.0" departLane="random" departSpeed="10" />
    <vehicle id="UL2_DL2_11" type="standard_car" route="UL2_DL2" depart="145.0" departLane="random" departSpeed="10" />
    <vehicle id="UL2_DL2_12" type="standard_car" route="UL2_DL2" depart="146.0" departLane="random" departSpeed="10" />
    <vehicle id="RU1_LU1_13" type="standard_car" route="RU1_LU1" depart="170.0" departLane="random" departSpeed="10" />
    <vehicle id="DR2_UR2_14" type="standard_car" route="DR2_UR2" depart="185.0" departLane="random" departSpeed="10" />
    <vehicle id="LD1_RD1_15" type="standard_car" route="LD1_RD1" depart="186.0" departLane="random" departSpeed="10" />
    <vehicle id="LD1_RD1_16" type="standard_car" route="LD1_RD1" depart="188.0" departLane="random" departSpeed="10" />
    <vehicle id="UL2_LU1_17" type="standard_car" route="UL2_LU1" depart="189.0" departLane="random" departSpeed="10" />
    <vehicle id="RU1_LU1_18" type="standard_car" route="RU1_LU1" depart="189.0" departLane="random" departSpeed="10" />
    <vehicle id="DR2_UR2_19" type="standard_car" route="DR2_UR2" depart="202.0" departLane="random" departSpeed="10" />
    <vehicle id="RU1_LU1_20" type="standard_car" route="RU1_LU1" depart="203.0" departLane="random" departSpeed="10" />
    <vehicle id="DR2_UR2_21" type="standard_car" route="DR2_UR2" depart="212.0" departLane="random" departSpeed="10" />
    <vehicle id="RU1_LU1_22" type="standard_car" route="RU1_LU1" depart="212.0" departLane="random" departSpeed="10" />
    <vehicle id="DR2_UR2_23" type="standard_car" route="DR2_UR2" depart="215.0" departLane="random" departSpeed="10" />
    <vehicle id="UL2_DL2_24" type="standard_car" route="UL2_DL2" depart="219.0" departLane="random" departSpeed="10" />
    <vehicle id="UL2_DL2_25" type="standard_car" route="UL2_DL2" depart="222.0" departLane="random" departSpeed="10" />
    <vehicle id="UL2_RD1_26" type="standard_car" route="UL2_RD1" depart="237.0" departLane="random" departSpeed="10" />
    <vehicle id="DR2_LU1_27" type="standard_car" route="DR2_LU1" depart="243.0" departLane="random" departSpeed="10" />
    <vehicle id="DR2_UR2_28" type="standard_car" route="DR2_UR2" depart="243.0" departLane="random" departSpeed="10" />
    <vehicle id="DR2_UR2_29" type="standard_car" route="DR2_UR2" depart="247.0" departLane="random" departSpeed="10" />
    <vehicle id="LD1_RD1_30" type="standard_car" route="LD1_RD1" depart="250.0" departLane="random" departSpeed="10" />
    <vehicle id="UL2_DL2_31" type="standard_car" route="UL2_DL2" depart="265.0" departLane="random" departSpeed="10" />
    <vehicle id="RU1_LU1_32" type="standard_car" route="RU1_LU1" depart="267.0" departLane="random" departSpeed="10" />
    <vehicle id="DR2_UR2_33" type="standard_car" route="DR2_UR2" depart="270.0" departLane="random" departSpeed="10" />
    <vehicle id="UL2_DL2_34" type="standard_car" route="UL2_DL2" depart="270.0" departLane="random" departSpeed="10" />
    <vehicle id="UL2_DL2_35" type="standard_car" route="UL2_DL2" depart="273.0" departLane="random" departSpeed="10" />
    <vehicle id="RU1_LU1_36" type="standard_car" route="RU1_LU1" depart="277.0" departLane="random" departSpeed="10" />
    <vehicle id="UL2_DL2_37" type="standard_car" route="UL2_DL2" depart="279.0" departLane="random" departSpeed="10" />
    <vehicle id="UL2_DL2_38" type="standard_car" route="UL2_DL2" depart="289.0" departLane="random" departSpeed="10" />
    <vehicle id="RU1_LU1_39" type="standard_car" route="RU1_LU1" depart="290.0" departLane="random" departSpeed="10" />
    <vehicle id="RU1_DL2_40" type="standard_car" route="RU1_DL2" depart="292.0" departLane="random" departSpeed="10" />
    <vehicle id="UL2_DL2_41" type="standard_car" route="UL2_DL2" depart="294.0" departLane="random" departSpeed="10" />
    <vehicle id="RU1_LU1_42" type="standard_car" route="RU1_LU1" depart="302.0" departLane="random" departSpeed="10" />
    <vehicle id="RU1_LU1_43" type="standard_car" route="RU1_LU1" depart="303.0" departLane="random" departSpeed="10" />
    <vehicle id="RU1_LU1_44" type="standard_car" route="RU1_LU1" depart="308.0" departLane="random" departSpeed="10" />
    <vehicle id="LD1_UR2_45" type="standard_car" route="LD1_UR2" depart="310.0" departLane="random" departSpeed="10" />
    <vehicle id="UL2_DL2_46" type="standard_car" route="UL2_DL2" depart="313.0" departLane="random" departSpeed="10" />
    <vehicle id="LD1_RD1_47" type="standard_car" route="LD1_RD1" depart="318.0" departLane="random" departSpeed="10" />
    <vehicle id="DR2_LU1_48" type="standard_car" route="DR2_LU1" depart="318.0" departLane="random" departSpeed="10" />
    <vehicle id="LD1_RD1_49" type="standard_car" route="LD1_RD1" depart="322.0" departLane="random" departSpeed="10" />
    <vehicle id="DR2_UR2_50" type="standard_car" route="DR2_UR2" depart="322.0" departLane="random" departSpeed="10" />
    <vehicle id="DR2_UR2_51" type="standard_car" route="DR2_UR2" depart="339.0" departLane="random" departSpeed="10" />
    <vehicle id="LD1_RD1_52" type="standard_car" route="LD1_RD1" depart="341.0" departLane="random" departSpeed="10" />
    <vehicle id="DR2_UR2_53" type="standard_car" route="DR2_UR2" depart="342.0" departLane="random" departSpeed="10" />
    <vehicle id="UL2_DL2_54" type="standard_car" route="UL2_DL2" depart="342.0" departLane="random" departSpeed="10" />
    <vehicle id="DR2_UR2_55" type="standard_car" route="DR2_UR2" depart="344.0" departLane="random" departSpeed="10" />
    <vehicle id="UL2_DL2_56" type="standard_car" route="UL2_DL2" depart="344.0" departLane="random" departSpeed="10" />
    <vehicle id="DR2_RD1_57" type="standard_car" route="DR2_RD1" depart="352.0" departLane="random" departSpeed="10" />
    <vehicle id="RU1_DL2_58" type="standard_car" route="RU1_DL2" depart="353.0" departLane="random" departSpeed="10" />
    <vehicle id="UL2_DL2_59" type="standard_car" route="UL2_DL2" depart="354.0" departLane="random" departSpeed="10" />
    <vehicle id="UL2_DL2_60" type="standard_car" route="UL2_DL2" depart="355.0" departLane="random" departSpeed="10" />
    <vehicle id="RU1_LU1_61" type="standard_car" route="RU1_LU1" depart="356.0" departLane="random" departSpeed="10" />
    <vehicle id="DR2_UR2_62" type="standard_car" route="DR2_UR2" depart="357.0" departLane="random" departSpeed="10" />
    <vehicle id="UL2_DL2_63" type="standard_car" route="UL2_DL2" depart="364.0" departLane="random" departSpeed="10" />
    <vehicle id="RU1_LU1_64" type="standard_car" route="RU1_LU1" depart="364.0" departLane="random" departSpeed="10" />
    <vehicle id="DR2_RD1_65" type="standard_car" route="DR2_RD1" depart="367.0" departLane="random" departSpeed="10" />
    <vehicle id="LD1_RD1_66" type="standard_car" route="LD1_RD1" depart="367.0" departLane="random" departSpeed="10" />
    <vehicle id="DR2_LU1_67" type="standard_car" route="DR2_LU1" depart="370.0" departLane="random" departSpeed="10" />
    <vehicle id="UL2_DL2_68" type="standard_car" route="UL2_DL2" depart="373.0" departLane="random" departSpeed="10" />
    <vehicle id="LD1_RD1_69" type="standard_car" route="LD1_RD1" depart="374.0" departLane="random" departSpeed="10" />
    <vehicle id="LD1_RD1_70" type="standard_car" route="LD1_RD1" depart="377.0" departLane="random" departSpeed="10" />
    <vehicle id="LD1_DL2_71" type="standard_car" route="LD1_DL2" depart="381.0" departLane="random" departSpeed="10" />
    <vehicle id="UL2_DL2_72" type="standard_car" route="UL2_DL2" depart="385.0" departLane="random" departSpeed="10" />
    <vehicle id="LD1_RD1_73" type="standard_car" route="LD1_RD1" depart="387.0" departLane="random" departSpeed="10" />
    <vehicle id="LD1_RD1_74" type="standard_car" route="LD1_RD1" depart="393.0" departLane="random" departSpeed="10" />
    <vehicle id="UL2_DL2_75" type="standard_car" route="UL2_DL2" depart="393.0" departLane="random" departSpeed="10" />
    <vehicle id="DR2_UR2_76" type="standard_car" route="DR2_UR2" depart="393.0" departLane="random" departSpeed="10" />
    <vehicle id="DR2_UR2_77" type="standard_car" route="DR2_UR2" depart="393.0" departLane="random" departSpeed="10" />
    <vehicle id="DR2_UR2_78" type="standard_car" route="DR2_UR2" depart="400.0" departLane="random" departSpeed="10" />
    <vehicle id="UL2_DL2_79" type="standard_car" route="UL2_DL2" depart="402.0" departLane="random" departSpeed="10" />
    <vehicle id="DR2_UR2_80" type="standard_car" route="DR2_UR2" depart="402.0" departLane="random" departSpeed="10" />
    <vehicle id="LD1_RD1_81" type="standard_car" route="LD1_RD1" depart="404.0" departLane="random" departSpeed="10" />
    <vehicle id="LD1_RD1_82" type="standard_car" route="LD1_RD1" depart="406.0" departLane="random" departSpeed="10" />
    <vehicle id="UL2_DL2_83" type="standard_car" route="UL2_DL2" depart="411.0" departLane="random" departSpeed="10" />
    <vehicle id="DR2_UR2_84" type="standard_car" route="DR2_UR2" depart="413.0" departLane="random" departSpeed="10" />
    <vehicle id="UL2_DL2_85" type="standard_car" route="UL2_DL2" depart="417.0" departLane="random" departSpeed="10" />
    <vehicle id="LD1_RD1_86" type="standard_car" route="LD1_RD1" depart="417.0" departLane="random" departSpeed="10" />
    <vehicle id="UL2_DL2_87" type="standard_car" route="UL2_DL2" depart="417.0" departLane="random" departSpeed="10" />
    <vehicle id="UL2_DL2_88" type="standard_car" route="UL2_DL2" depart="420.0" departLane="random" departSpeed="10" />
    <vehicle id="DR2_UR2_89" type="standard_car" route="DR2_UR2" depart="420.0" departLane="random" departSpeed="10" />
    <vehicle id="DR2_RD1_90" type="standard_car" route="DR2_RD1" depart="420.0" departLane="random" departSpeed="10" />
    <vehicle id="LD1_RD1_91" type="standard_car" route="LD1_RD1" depart="421.0" departLane="random" departSpeed="10" />
    <vehicle id="DR2_UR2_92" type="standard_car" route="DR2_UR2" depart="421.0" departLane="random" departSpeed="10" />
    <vehicle id="UL2_DL2_93" type="standard_car" route="UL2_DL2" depart="422.0" departLane="random" departSpeed="10" />
    <vehicle id="RU1_LU1_94" type="standard_car" route="RU1_LU1" depart="424.0" departLane="random" departSpeed="10" />
    <vehicle id="DR2_RD1_95" type="standard_car" route="DR2_RD1" depart="427.0" departLane="random" departSpeed="10" />
    <vehicle id="RU1_UR2_96" type="standard_car" route="RU1_UR2" depart="431.0" departLane="random" departSpeed="10" />
    <vehicle id="DR2_UR2_97" type="standard_car" route="DR2_UR2" depart="433.0" departLane="random" departSpeed="10" />
    <vehicle id="UL2_DL2_98" type="standard_car" route="UL2_DL2" depart="433.0" departLane="random" departSpeed="10" />
    <vehicle id="LD1_UR2_99" type="standard_car" route="LD1_UR2" depart="436.0" departLane="random" departSpeed="10" />
    <vehicle id="UL2_DL2_100" type="standard_car" route="UL2_DL2" depart="437.0" departLane="random" departSpeed="10" />
    <vehicle id="LD1_RD1_101" type="standard_car" route="LD1_RD1" depart="438.0" departLane="random" departSpeed="10" />
    <vehicle id="DR2_RD1_102" type="standard_car" route="DR2_RD1" depart="438.0" departLane="random" departSpeed="10" />
    <vehicle id="RU1_LU1_103" type="standard_car" route="RU1_LU1" depart="444.0" departLane="random" departSpeed="10" />
    <vehicle id="LD1_DL2_104" type="standard_car" route="LD1_DL2" depart="444.0" departLane="random" departSpeed="10" />
    <vehicle id="RU1_LU1_105" type="standard_car" route="RU1_LU1" depart="444.0" departLane="random" departSpeed="10" />
    <vehicle id="RU1_LU1_106" type="standard_car" route="RU1_LU1" depart="446.0" departLane="random" departSpeed="10" />
    <vehicle id="UL2_DL2_107" type="standard_car" route="UL2_DL2" depart="449.0" departLane="random" departSpeed="10" />
    <vehicle id="RU1_LU1_108" type="standard_car" route="RU1_LU1" depart="450.0" departLane="random" departSpeed="10" />
    <vehicle id="UL2_RD1_109" type="standard_car" route="UL2_RD1" depart="451.0" departLane="random" departSpeed="10" />
    <vehicle id="RU1_DL2_110" type="standard_car" route="RU1_DL2" depart="453.0" departLane="random" departSpeed="10" />
    <vehicle id="UL2_DL2_111" type="standard_car" route="UL2_DL2" depart="455.0" departLane="random" departSpeed="10" />
    <vehicle id="RU1_LU1_112" type="standard_car" route="RU1_LU1" depart="456.0" departLane="random" departSpeed="10" />
    <vehicle id="LD1_RD1_113" type="standard_car" route="LD1_RD1" depart="457.0" departLane="random" departSpeed="10" />
    <vehicle id="RU1_LU1_114" type="standard_car" route="RU1_LU1" depart="458.0" departLane="random" departSpeed="10" />
    <vehicle id="RU1_LU1_115" type="standard_car" route="RU1_LU1" depart="461.0" departLane="random" departSpeed="10" />
    <vehicle id="RU1_LU1_116" type="standard_car" route="RU1_LU1" depart="461.0" departLane="random" departSpeed="10" />
    <vehicle id="UL2_RD1_117" type="standard_car" route="UL2_RD1" depart="464.0" departLane="random" departSpeed="10" />
    <vehicle id="UL2_DL2_118" type="standard_car" route="UL2_DL2" depart="469.0" departLane="random" departSpeed="10" />
    <vehicle id="DR2_UR2_119" type="standard_car" route="DR2_UR2" depart="471.0" departLane="random" departSpeed="10" />
    <vehicle id="LD1_RD1_120" type="standard_car" route="LD1_RD1" depart="471.0" departLane="random" departSpeed="10" />
    <vehicle id="RU1_LU1_121" type="standard_car" route="RU1_LU1" depart="472.0" departLane="random" departSpeed="10" />
    <vehicle id="LD1_RD1_122" type="standard_car" route="LD1_RD1" depart="472.0" departLane="random" departSpeed="10" />
    <vehicle id="LD1_DL2_123" type="standard_car" route="LD1_DL2" depart="473.0" departLane="random" departSpeed="10" />
    <vehicle id="UL2_DL2_124" type="standard_car" route="UL2_DL2" depart="475.0" departLane="random" departSpeed="10" />
    <vehicle id="DR2_UR2_125" type="standard_car" route="DR2_UR2" depart="482.0" departLane="random" departSpeed="10" />
    <vehicle id="LD1_DL2_126" type="standard_car" route="LD1_DL2" depart="483.0" departLane="random" departSpeed="10" />
    <vehicle id="UL2_RD1_127" type="standard_car" route="UL2_RD1" depart="485.0" departLane="random" departSpeed="10" />
    <vehicle id="UL2_LU1_128" type="standard_car" route="UL2_LU1" depart="489.0" departLane="random" departSpeed="10" />
    <vehicle id="UL2_DL2_129" type="standard_car" route="UL2_DL2" depart="490.0" departLane="random" departSpeed="10" />
    <vehicle id="LD1_RD1_130" type="standard_car" route="LD1_RD1" depart="493.0" departLane="random" departSpeed="10" />
    <vehicle id="RU1_LU1_131" type="standard_car" route="RU1_LU1" depart="493.0" departLane="random" departSpeed="10" />
    <vehicle id="DR2_UR2_132" type="standard_car" route="DR2_UR2" depart="494.0" departLane="random" departSpeed="10" />
    <vehicle id="DR2_UR2_133" type="standard_car" route="DR2_UR2" depart="496.0" departLane="random" departSpeed="10" />
    <vehicle id="LD1_RD1_134" type="standard_car" route="LD1_RD1" depart="497.0" departLane="random" departSpeed="10" />
    <vehicle id="LD1_DL2_135" type="standard_car" route="LD1_DL2" depart="499.0" departLane="random" departSpeed="10" />
    <vehicle id="DR2_UR2_136" type="standard_car" route="DR2_UR2" depart="501.0" departLane="random" departSpeed="10" />
    <vehicle id="DR2_UR2_137" type="standard_car" route="DR2_UR2" depart="502.0" departLane="random" departSpeed="10" />
    <vehicle id="RU1_LU1_138" type="standard_car" route="RU1_LU1" depart="504.0" departLane="random" departSpeed="10" />
    <vehicle id="RU1_LU1_139" type="standard_car" route="RU1_LU1" depart="504.0" departLane="random" departSpeed="10" />
    <vehicle id="RU1_LU1_140" type="standard_car" route="RU1_LU1" depart="505.0" departLane="random" departSpeed="10" />
    <vehicle id="DR2_RD1_141" type="standard_car" route="DR2_RD1" depart="506.0" departLane="random" departSpeed="10" />
    <vehicle id="UL2_DL2_142" type="standard_car" route="UL2_DL2" depart="507.0" departLane="random" departSpeed="10" />
    <vehicle id="RU1_UR2_143" type="standard_car" route="RU1_UR2" depart="508.0" departLane="random" departSpeed="10" />
    <vehicle id="LD1_DL2_144" type="standard_car" route="LD1_DL2" depart="509.0" departLane="random" departSpeed="10" />
    <vehicle id="UL2_DL2_145" type="standard_car" route="UL2_DL2" depart="509.0" departLane="random" departSpeed="10" />
    <vehicle id="UL2_DL2_146" type="standard_car" route="UL2_DL2" depart="509.0" departLane="random" departSpeed="10" />
    <vehicle id="UL2_DL2_147" type="standard_car" route="UL2_DL2" depart="513.0" departLane="random" departSpeed="10" />
    <vehicle id="DR2_RD1_148" type="standard_car" route="DR2_RD1" depart="515.0" departLane="random" departSpeed="10" />
    <vehicle id="UL2_DL2_149" type="standard_car" route="UL2_DL2" depart="519.0" departLane="random" departSpeed="10" />
    <vehicle id="DR2_UR2_150" type="standard_car" route="DR2_UR2" depart="521.0" departLane="random" departSpeed="10" />
    <vehicle id="RU1_LU1_151" type="standard_car" route="RU1_LU1" depart="523.0" departLane="random" departSpeed="10" />
    <vehicle id="LD1_RD1_152" type="standard_car" route="LD1_RD1" depart="523.0" departLane="random" departSpeed="10" />
    <vehicle id="UL2_DL2_153" type="standard_car" route="UL2_DL2" depart="523.0" departLane="random" departSpeed="10" />
    <vehicle id="LD1_RD1_154" type="standard_car" route="LD1_RD1" depart="523.0" departLane="random" departSpeed="10" />
    <vehicle id="DR2_UR2_155" type="standard_car" route="DR2_UR2" depart="524.0" departLane="random" departSpeed="10" />
    <vehicle id="UL2_RD1_156" type="standard_car" route="UL2_RD1" depart="524.0" departLane="random" departSpeed="10" />
    <vehicle id="UL2_RD1_157" type="standard_car" route="UL2_RD1" depart="527.0" departLane="random" departSpeed="10" />
    <vehicle id="DR2_UR2_158" type="standard_car" route="DR2_UR2" depart="527.0" departLane="random" departSpeed="10" />
    <vehicle id="LD1_RD1_159" type="standard_car" route="LD1_RD1" depart="531.0" departLane="random" departSpeed="10" />
    <vehicle id="RU1_LU1_160" type="standard_car" route="RU1_LU1" depart="532.0" departLane="random" departSpeed="10" />
    <vehicle id="RU1_LU1_161" type="standard_car" route="RU1_LU1" depart="536.0" departLane="random" departSpeed="10" />
    <vehicle id="DR2_RD1_162" type="standard_car" route="DR2_RD1" depart="540.0" departLane="random" departSpeed="10" />
    <vehicle id="DR2_UR2_163" type="standard_car" route="DR2_UR2" depart="541.0" departLane="random" departSpeed="10" />
    <vehicle id="UL2_DL2_164" type="standard_car" route="UL2_DL2" depart="542.0" departLane="random" departSpeed="10" />
    <vehicle id="RU1_DL2_165" type="standard_car" route="RU1_DL2" depart="544.0" departLane="random" departSpeed="10" />
    <vehicle id="DR2_UR2_166" type="standard_car" route="DR2_UR2" depart="548.0" departLane="random" departSpeed="10" />
    <vehicle id="DR2_UR2_167" type="standard_car" route="DR2_UR2" depart="548.0" departLane="random" departSpeed="10" />
    <vehicle id="UL2_RD1_168" type="standard_car" route="UL2_RD1" depart="550.0" departLane="random" departSpeed="10" />
    <vehicle id="DR2_UR2_169" type="standard_car" route="DR2_UR2" depart="551.0" departLane="random" departSpeed="10" />
    <vehicle id="RU1_DL2_170" type="standard_car" route="RU1_DL2" depart="556.0" departLane="random" departSpeed="10" />
    <vehicle id="RU1_LU1_171" type="standard_car" route="RU1_LU1" depart="557.0" departLane="random" departSpeed="10" />
    <vehicle id="RU1_LU1_172" type="standard_car" route="RU1_LU1" depart="559.0" departLane="random" departSpeed="10" />
    <vehicle id="UL2_DL2_173" type="standard_car" route="UL2_DL2" depart="561.0" departLane="random" departSpeed="10" />
    <vehicle id="DR2_UR2_174" type="standard_car" route="DR2_UR2" depart="561.0" departLane="random" departSpeed="10" />
    <vehicle id="DR2_UR2_175" type="standard_car" route="DR2_UR2" depart="562.0" departLane="random" departSpeed="10" />
    <vehicle id="DR2_RD1_176" type="standard_car" route="DR2_RD1" depart="562.0" departLane="random" departSpeed="10" />
    <vehicle id="LD1_UR2_177" type="standard_car" route="LD1_UR2" depart="562.0" departLane="random" departSpeed="10" />
    <vehicle id="UL2_DL2_178" type="standard_car" route="UL2_DL2" depart="565.0" departLane="random" departSpeed="10" />
    <vehicle id="RU1_LU1_179" type="standard_car" route="RU1_LU1" depart="567.0" departLane="random" departSpeed="10" />
    <vehicle id="UL2_DL2_180" type="standard_car" route="UL2_DL2" depart="568.0" departLane="random" departSpeed="10" />
    <vehicle id="UL2_DL2_181" type="standard_car" route="UL2_DL2" depart="568.0" departLane="random" departSpeed="10" />
    <vehicle id="UL2_RD1_182" type="standard_car" route="UL2_RD1" depart="568.0" departLane="random" departSpeed="10" />
    <vehicle id="LD1_RD1_183" type="standard_car" route="LD1_RD1" depart="570.0" departLane="random" departSpeed="10" />
    <vehicle id="RU1_LU1_184" type="standard_car" route="RU1_LU1" depart="571.0" departLane="random" departSpeed="10" />
    <vehicle id="UL2_LU1_185" type="standard_car" route="UL2_LU1" depart="573.0" departLane="random" departSpeed="10" />
    <vehicle id="LD1_RD1_186" type="standard_car" route="LD1_RD1" depart="577.0" departLane="random" departSpeed="10" />
    <vehicle id="RU1_LU1_187" type="standard_car" route="RU1_LU1" depart="579.0" departLane="random" departSpeed="10" />
    <vehicle id="DR2_UR2_188" type="standard_car" route="DR2_UR2" depart="580.0" departLane="random" departSpeed="10" />
    <vehicle id="DR2_UR2_189" type="standard_car" route="DR2_UR2" depart="584.0" departLane="random" departSpeed="10" />
    <vehicle id="LD1_RD1_190" type="standard_car" route="LD1_RD1" depart="584.0" departLane="random" departSpeed="10" />
    <vehicle id="DR2_LU1_191" type="standard_car" route="DR2_LU1" depart="590.0" departLane="random" departSpeed="10" />
    <vehicle id="DR2_UR2_192" type="standard_car" route="DR2_UR2" depart="591.0" departLane="random" departSpeed="10" />
    <vehicle id="UL2_DL2_193" type="standard_car" route="UL2_DL2" depart="592.0" departLane="random" departSpeed="10" />
    <vehicle id="RU1_LU1_194" type="standard_car" route="RU1_LU1" depart="593.0" departLane="random" departSpeed="10" />
    <vehicle id="UL2_DL2_195" type="standard_car" route="UL2_DL2" depart="593.0" departLane="random" departSpeed="10" />
    <vehicle id="UL2_DL2_196" type="standard_car" route="UL2_DL2" depart="594.0" departLane="random" departSpeed="10" />
    <vehicle id="UL2_DL2_197" type="standard_car" route="UL2_DL2" depart="594.0" departLane="random" departSpeed="10" />
    <vehicle id="RU1_LU1_198" type="standard_car" route="RU1_LU1" depart="596.0" departLane="random" departSpeed="10" />
    <vehicle id="UL2_DL2_199" type="standard_car" route="UL2_DL2" depart="596.0" departLane="random" departSpeed="10" />
    <vehicle id="UL2_DL2_200" type="standard_car" route="UL2_DL2" depart="599.0" departLane="random" departSpeed="10" />
    <vehicle id="UL2_DL2_201" type="standard_car" route="UL2_DL2" depart="599.0" departLane="random" departSpeed="10" />
    <vehicle id="RU1_DL2_202" type="standard_car" route="RU1_DL2" depart="602.0" departLane="random" departSpeed="10" />
    <vehicle id="LD1_RD1_203" type="standard_car" route="LD1_RD1" depart="605.0" departLane="random" departSpeed="10" />
    <vehicle id="DR2_UR2_204" type="standard_car" route="DR2_UR2" depart="606.0" departLane="random" departSpeed="10" />
    <vehicle id="RU1_LU1_205" type="standard_car" route="RU1_LU1" depart="608.0" departLane="random" departSpeed="10" />
    <vehicle id="LD1_DL2_206" type="standard_car" route="LD1_DL2" depart="609.0" departLane="random" departSpeed="10" />
    <vehicle id="UL2_DL2_207" type="standard_car" route="UL2_DL2" depart="612.0" departLane="random" departSpeed="10" />
    <vehicle id="DR2_UR2_208" type="standard_car" route="DR2_UR2" depart="612.0" departLane="random" departSpeed="10" />
    <vehicle id="LD1_RD1_209" type="standard_car" route="LD1_RD1" depart="614.0" departLane="random" departSpeed="10" />
    <vehicle id="LD1_RD1_210" type="standard_car" route="LD1_RD1" depart="614.0" departLane="random" departSpeed="10" />
    <vehicle id="LD1_RD1_211" type="standard_car" route="LD1_RD1" depart="618.0" departLane="random" departSpeed="10" />
    <vehicle id="UL2_DL2_212" type="standard_car" route="UL2_DL2" depart="622.0" departLane="random" departSpeed="10" />
    <vehicle id="DR2_UR2_213" type="standard_car" route="DR2_UR2" depart="623.0" departLane="random" departSpeed="10" />
    <vehicle id="DR2_UR2_214" type="standard_car" route="DR2_UR2" depart="625.0" departLane="random" departSpeed="10" />
    <vehicle id="UL2_DL2_215" type="standard_car" route="UL2_DL2" depart="630.0" departLane="random" departSpeed="10" />
    <vehicle id="UL2_DL2_216" type="standard_car" route="UL2_DL2" depart="630.0" departLane="random" departSpeed="10" />
    <vehicle id="UL2_DL2_217" type="standard_car" route="UL2_DL2" depart="630.0" departLane="random" departSpeed="10" />
    <vehicle id="LD1_UR2_218" type="standard_car" route="LD1_UR2" depart="630.0" departLane="random" departSpeed="10" />
    <vehicle id="DR2_UR2_219" type="standard_car" route="DR2_UR2" depart="631.0" departLane="random" departSpeed="10" />
    <vehicle id="LD1_DL2_220" type="standard_car" route="LD1_DL2" depart="632.0" departLane="random" departSpeed="10" />
    <vehicle id="DR2_UR2_221" type="standard_car" route="DR2_UR2" depart="632.0" departLane="random" departSpeed="10" />
    <vehicle id="RU1_LU1_222" type="standard_car" route="RU1_LU1" depart="634.0" departLane="random" departSpeed="10" />
    <vehicle id="LD1_RD1_223" type="standard_car" route="LD1_RD1" depart="635.0" departLane="random" departSpeed="10" />
    <vehicle id="UL2_DL2_224" type="standard_car" route="UL2_DL2" depart="635.0" departLane="random" departSpeed="10" />
    <vehicle id="DR2_UR2_225" type="standard_car" route="DR2_UR2" depart="636.0" departLane="random" departSpeed="10" />
    <vehicle id="LD1_UR2_226" type="standard_car" route="LD1_UR2" depart="640.0" departLane="random" departSpeed="10" />
    <vehicle id="UL2_LU1_227" type="standard_car" route="UL2_LU1" depart="640.0" departLane="random" departSpeed="10" />
    <vehicle id="LD1_RD1_228" type="standard_car" route="LD1_RD1" depart="643.0" departLane="random" departSpeed="10" />
    <vehicle id="DR2_UR2_229" type="standard_car" route="DR2_UR2" depart="643.0" departLane="random" departSpeed="10" />
    <vehicle id="LD1_RD1_230" type="standard_car" route="LD1_RD1" depart="644.0" departLane="random" departSpeed="10" />
    <vehicle id="RU1_LU1_231" type="standard_car" route="RU1_LU1" depart="645.0" departLane="random" departSpeed="10" />
    <vehicle id="UL2_RD1_232" type="standard_car" route="UL2_RD1" depart="645.0" departLane="random" departSpeed="10" />
    <vehicle id="UL2_DL2_233" type="standard_car" route="UL2_DL2" depart="645.0" departLane="random" departSpeed="10" />
    <vehicle id="UL2_DL2_234" type="standard_car" route="UL2_DL2" depart="646.0" departLane="random" departSpeed="10" />
    <vehicle id="RU1_DL2_235" type="standard_car" route="RU1_DL2" depart="647.0" departLane="random" departSpeed="10" />
    <vehicle id="UL2_RD1_236" type="standard_car" route="UL2_RD1" depart="650.0" departLane="random" departSpeed="10" />
    <vehicle id="DR2_UR2_237" type="standard_car" route="DR2_UR2" depart="653.0" departLane="random" departSpeed="10" />
    <vehicle id="RU1_LU1_238" type="standard_car" route="RU1_LU1" depart="653.0" departLane="random" departSpeed="10" />
    <vehicle id="RU1_LU1_239" type="standard_car" route="RU1_LU1" depart="654.0" departLane="random" departSpeed="10" />
    <vehicle id="LD1_RD1_240" type="standard_car" route="LD1_RD1" depart="654.0" departLane="random" departSpeed="10" />